#
# *******************
# Calendar Parameters
# *******************
 &CAL_NML
 TheCalendar='gregorian',
 startDate_1=20230501,
 startDate_2=000000,
# calendarDumps = .TRUE.,
 &
