#
# *******************
# Calendar Parameters
# *******************
 &CAL_NML
 TheCalendar='gregorian',
 startDate_1=20230515,
 startDate_2=010000,
# calendarDumps = .TRUE.,
 &
