#
# ********************************
# Off-line optimization parameters
# ********************************
 &OPTIM
 optimcycle=5,
 numiter=1000,
 nfunc=2,
 fmin=6650,
 iprint=10,
 nupdate=3,
 /
#
