#
# ***************
# Open boundaries
# ***************
 &OBCS_PARM01
 OB_Jnorth=   774*966,
 OB_Jsouth=   774*1,
 OB_Iwest=    966*1,
#
 useOrlanskiNorth=.FALSE.,
 useOBCSsponge=.TRUE.,
 useLinearSponge=.TRUE.,
 OBCSsponge_Salt=.FALSE.,
 OBCSsponge_Theta=.FALSE.,
 useOBCSbalance=.FALSE.,
 useOBCSprescribe=.TRUE.,
#
 OBNuFile='../SWOT_inputs/U_obcn_zeros_ccs_may2016.bin',
 OBNvFile='../SWOT_inputs/v_obcn_glorysNRT_ccs_may2023.bin',
 OBNtFile='../SWOT_inputs/t_obcn_glorysNRT_ccs_may2023.bin',
 OBNsFile='../SWOT_inputs/s_obcn_glorysNRT_ccs_may2023.bin',
#
 OBSuFile='../SWOT_inputs/U_obcs_zeros_ccs_may2016.bin',
 OBSvFile='../SWOT_inputs/v_obcs_glorysNRT_ccs_may2023.bin',
 OBStFile='../SWOT_inputs/t_obcs_glorysNRT_ccs_may2023.bin',
 OBSsFile='../SWOT_inputs/s_obcs_glorysNRT_ccs_may2023.bin',
#
 OBWuFile='../SWOT_inputs/u_obcw_zeronet_glorysNRT_ccs_may2023.bin',
 OBWvFile='../SWOT_inputs/V_obcw_zeros_ccs_may2016.bin',
 OBWtFile='../SWOT_inputs/t_obcw_glorysNRT_ccs_may2023.bin',
 OBWsFile='../SWOT_inputs/s_obcw_glorysNRT_ccs_may2023.bin',
#
#  MITgcm/verification/seaice_obcs/input.tides
   useOBCStides = .FALSE.,
#
 /
# *****************************************
# Orlanski Boundary Condition Parameters.
# *****************************************
 &OBCS_PARM02
# cvelTimeScale = 2000.,
 /

# *****************************************
# Sponge Layer Parameters.
# *****************************************
 &OBCS_PARM03
 Urelaxobcsinner=864000.E0,
 Urelaxobcsbound=43200.E0,
 Vrelaxobcsinner=864000.E0,
 Vrelaxobcsbound=43200.E0,
 spongeThickness=10,
 /
