# Diagnostic Package Choices
#-----------------
# for each output-stream:
#  filename(n) : prefix of the output file name (only 8.c long) for outp.stream n
#  frequency(n):< 0 : write snap-shot output every |frequency| seconds
#               > 0 : write time-average output every frequency seconds
#  timePhase(n)     : write at time = timePhase + multiple of |frequency|
#  levels(:,n) : list of levels to write to file (Notes: declared as REAL)
#                 when this entry is missing, select all common levels of this list
#  fields(:,n) : list of diagnostics fields (8.c) (see "available_diagnostics.log"
#                 file for the list of all available diag. in this particular config)
#-----------------
 &diagnostics_list
# diag_mnc     = .FALSE.,
# do not specify levels => all levels are selected
#---
   frequency(1) = 86400.0,
   fields(1,1) = 'UVEL    ',
                 'VVEL    ',
   filename(1) = 'diag_vel',
#
#   frequency(1) = 86400.0,
#   timePhase(1) = 0.0,
#   fields(1,1) = 'THETA   ',
#                 'SALT    ',
#                 'UVEL    ',
#                 'VVEL    ',
#                 'WVEL    ',
#                 'PHIHYD  ',
#                 'DRHODR  ',
#   filename(1) = 'diags_3D',

#   frequency(1) = -43200.0,
#   timePhase(1) = 0.0,
#   fields(1,1) = 'THETA   ',
#                 'SALT    ',
#                 'UVEL    ',
#                 'VVEL    ',
#                 'WVEL    ',
#                 'PHIHYD  ',
#                 'DRHODR  ',
#   levels(1,1) = 1.0,
#   filename(1) = 'diags_3D',

#
    frequency(2) = 86400.0,
    timePhase(2) = 0.0,
    fields(1,2) = 'ETAN    ',
#                  'PHIBOT  ',
#                  'TFLUX   ',
#                  'SFLUX   ',
#                  'oceQsw  ', 
    filename(2) = 'diag_ssh',
#
#    frequency(4) = 86400.0,
#    fields(1,4) = 'ADVx_TH ', 'ADVy_TH ',
#                  'ADVr_TH ', 'DFxE_TH ',
#                  'DFyE_TH ',
#                  'DFrE_TH ', 'DFrI_TH ', 
#                  'TOTTTEND',
#    filename(4) = 'diags_Tbdgt',
##
#    frequency(5) = 86400.0,
#    fields(1,5) = 'ADVx_SLT', 'ADVy_SLT', 
#                  'ADVr_SLT', 'DFxE_SLT',
#                  'DFyE_SLT',
#                  'DFrE_SLT', 'DFrI_SLT', 
#                  'TOTSTEND',
#    filename(5) = 'diags_Sbdgt',
##
##---
 /
#
# Parameter for Diagnostics of per level statistics:
#-----------------
# for each output-stream:
#  stat_fname(n) : prefix of the output file name (only 8.c long) for outp.stream n
#  stat_freq(n):< 0 : write snap-shot output every |stat_freq| seconds
#               > 0 : write time-average output every stat_freq seconds
#  stat_phase(n)    : write at time = stat_phase + multiple of |stat_freq|
#  stat_region(:,n) : list of "regions" (default: 1 region only=global)
#  stat_fields(:,n) : list of diagnostics fields (8.c) (see "available_diagnostics.log"
#                 file for the list of all available diag. in this particular config)
#-----------------
 &DIAG_STATIS_PARMS
# an example just to check the agreement with MONITOR output:
# stat_fields(1,1)= 'ETAN    ','UVEL    ','VVEL    ','WVEL    ', 'THETA   ',
#    stat_fname(1)= 'dynStDiag',
#     stat_freq(1)= -864000.,
#    stat_phase(1)= 0.,
/
